**************
*SRC=PCEBB12211A0S2_B;PCEBB12211_B;IBIS_BUFFER;I/O;best
*SYM=IBISO
.SUBCKT PCEBB12211_B 100 4 300 400 500
*Connections    Input Output VCC VEE Enable
;
; E:\SPICE4\CIRCUITS\APPS\IBIS\82375sb.ibs
; Tuesday, September 08, 1998 16:14:45
;
; Referenced by:
; LA31, LA30, LA29, LA28, LA27
; LA26, LA25, LA24, LA16, LA15
; LA14, LA13, LA12, LA11, LA10
; LA9, LA8, LA7, LA6, LA5
; LA4, LA23, LA3, LA22, LA2
; LA21, LA20, LA19, LA18, LA17
; AD31, AD30, AD29, AD28, AD27
; AD26, AD25, AD24, C/BE3#, AD23
; AD22, AD21, AD20, AD19, AD18
; AD17, AD16, C/BE2#, FRAME#, IRDY#
; TRDY#, DEVSEL#, STOP#, PCILOCK#, PERR#
; PAR, C/BE1#, AD15, AD14, AD13
; AD12, AD11, AD10, AD9, C/BE0#
; AD8, AD7, AD6, AD5, AD4
; AD3, AD2, AD1, AD0, LOCK#
; START#, EXRDY, SLBURST#, MSBURST#, M/IO#
; W/R#, BE3#, BE2#, BE1#, BE0#
*Passed Parameters; best
*DEFINE {RTF}=  58.898k  ;2.36V/1.39ns
*DEFINE {RTR}=  78.659k  ;1.64V/1.29ns
* Input Control
B1 820 0 V=V(100) & V(500)
B2 830 0 V= V(500) & ~V(100)
* Up and Down Ramps
B3 300 850 I= V(830) > 1.2   ? 0 : V(300,850) / {RTR}
B4 840 400 I= V(820) > 1.2 ? 0 : V(840,400) / {RTF}
C1 300 850 .01P
C2 840 400 .01P
S1 220 850 0 820 SMOD
S2 840 220 0 830 SMOD
.MODEL SMOD SW RON=.1M ROFF=1E15 VT=-1.2 VH=.1
G1 8 400 2 8 1
R1 6 400 1
G2 300 8 8 3 1
R2 300 6 1
* Pull-up/Pull-down structures; best

XEPL_DN 2 400 8 840 PULL_DOWN


XEPL_UP 3 300 850 8 PULL_UP

* Diode Clamps

XPWR_CLAMP 6 300 300 6 PWR_CLAMP


XGND_OUT 6 400 6 400 GND_CLAMP

* Package Parasitics; best
ROSNB 5 1 100
ROPKG 1 4 42.0m
COPKG 4 400 1.61pF
CCOMP 5 400 1.24pF
LOPKG 5 1 9.50nH
* Voltage Sources for measuring currents
V5 6 5 
V6 8 6 
V7 220 8 
.ENDS


.SUBCKT	GND_CLAMP	3    4   1   2
; connections:      Out+ Out In+ In
B1	3 4	I=
+ (V(1,2) <   -5.000 ) ?    1.000n * V(1,2) +  -78.350  : 
+ (V(1,2) <   -4.800 ) ?   18.850  * V(1,2) +   15.900  : 
+ (V(1,2) <   -4.600 ) ?   18.850  * V(1,2) +   15.900  : 
+ (V(1,2) <   -4.400 ) ?   18.800  * V(1,2) +   15.670  : 
+ (V(1,2) <   -4.200 ) ?   18.850  * V(1,2) +   15.890  : 
+ (V(1,2) <   -4.000 ) ?   18.800  * V(1,2) +   15.680  : 
+ (V(1,2) <   -3.800 ) ?   18.800  * V(1,2) +   15.680  : 
+ (V(1,2) <   -3.600 ) ?   18.800  * V(1,2) +   15.680  : 
+ (V(1,2) <   -3.400 ) ?   18.750  * V(1,2) +   15.500  : 
+ (V(1,2) <   -3.200 ) ?   18.750  * V(1,2) +   15.500  : 
+ (V(1,2) <   -3.000 ) ?   18.750  * V(1,2) +   15.500  : 
+ (V(1,2) <   -2.800 ) ?   18.700  * V(1,2) +   15.350  : 
+ (V(1,2) <   -2.600 ) ?   18.650  * V(1,2) +   15.210  : 
+ (V(1,2) <   -2.400 ) ?   18.650  * V(1,2) +   15.210  : 
+ (V(1,2) <   -2.200 ) ?   18.600  * V(1,2) +   15.090  : 
+ (V(1,2) <   -2.000 ) ?   18.500  * V(1,2) +   14.870  : 
+ (V(1,2) <   -1.950 ) ?   18.600  * V(1,2) +   15.070  : 
+ (V(1,2) <   -1.900 ) ?   18.400  * V(1,2) +   14.680  : 
+ (V(1,2) <   -1.850 ) ?   18.400  * V(1,2) +   14.680  : 
+ (V(1,2) <   -1.800 ) ?   18.400  * V(1,2) +   14.680  : 
+ (V(1,2) <   -1.750 ) ?   18.400  * V(1,2) +   14.680  : 
+ (V(1,2) <   -1.700 ) ?   18.400  * V(1,2) +   14.680  : 
+ (V(1,2) <   -1.650 ) ?   18.200  * V(1,2) +   14.340  : 
+ (V(1,2) <   -1.600 ) ?   18.400  * V(1,2) +   14.670  : 
+ (V(1,2) <   -1.550 ) ?   18.200  * V(1,2) +   14.350  : 
+ (V(1,2) <   -1.500 ) ?   18.200  * V(1,2) +   14.350  : 
+ (V(1,2) <   -1.450 ) ?   18.000  * V(1,2) +   14.050  : 
+ (V(1,2) <   -1.400 ) ?   18.200  * V(1,2) +   14.340  : 
+ (V(1,2) <   -1.350 ) ?   17.800  * V(1,2) +   13.780  : 
+ (V(1,2) <   -1.300 ) ?   18.000  * V(1,2) +   14.050  : 
+ (V(1,2) <   -1.250 ) ?   17.600  * V(1,2) +   13.530  : 
+ (V(1,2) <   -1.200 ) ?   17.800  * V(1,2) +   13.780  : 
+ (V(1,2) <   -1.150 ) ?   17.400  * V(1,2) +   13.300  : 
+ (V(1,2) <   -1.100 ) ?   17.400  * V(1,2) +   13.300  : 
+ (V(1,2) <   -1.050 ) ?   17.000  * V(1,2) +   12.860  : 
+ (V(1,2) <   -1.000 ) ?   16.800  * V(1,2) +   12.650  : 
+ (V(1,2) < -950.000m) ?   16.000  * V(1,2) +   11.850  : 
+ (V(1,2) < -900.000m) ?   16.000  * V(1,2) +   11.850  : 
+ (V(1,2) < -850.000m) ?   14.200  * V(1,2) +   10.230  : 
+ (V(1,2) < -800.000m) ?   14.000  * V(1,2) +   10.060  : 
+ (V(1,2) < -750.000m) ?    9.158  * V(1,2) +    6.186  : 
+ (V(1,2) < -700.000m) ?    9.122  * V(1,2) +    6.159  : 
+ (V(1,2) < -650.000m) ?    2.117  * V(1,2) +    1.256  : 
+ (V(1,2) < -600.000m) ?    2.117  * V(1,2) +    1.256  : 
+ (V(1,2) < -550.000m) ?  136.200m * V(1,2) +   67.440m : 
+ (V(1,2) < -500.000m) ?  136.291m * V(1,2) +   67.490m : 
+ (V(1,2) < -450.000m) ?    6.255m * V(1,2) +    2.472m : 
+ (V(1,2) < -400.000m) ?    6.255m * V(1,2) +    2.472m : 
+ (V(1,2) < -350.000m) ?  284.800u * V(1,2) +   84.020u : 
+ (V(1,2) < -300.000m) ?  284.800u * V(1,2) +   84.020u : 
+ (V(1,2) < -250.000m) ?   13.521u * V(1,2) +    2.636u : 
+ (V(1,2) < -200.000m) ?   13.434u * V(1,2) +    2.614u : 
+ (V(1,2) < -150.000m) ?  679.600n * V(1,2) +   63.630n : 
+ (V(1,2) < -100.000m) ?  679.400n * V(1,2) +   63.600n : 
+ (V(1,2) <  -50.000m) ?   39.000n * V(1,2) + -440.000p : 
+ (V(1,2) <    0.000 ) ?   38.905n * V(1,2) + -444.770p : 
+ (V(1,2) <    5.000 ) ?  117.033n * V(1,2) + -444.770p : 
+    1.000n * V(1,2) +  584.720n
.ENDS


.SUBCKT	PULL_UP	3    4   1   2
; connections:  Out+ Out In+ In
B1	3 4	V=
+ (V(1,2) <   -5.000 ) ?    1.000n * V(1,2) +  237.100u : 
+ (V(1,2) <   -4.500 ) ?   61.280u * V(1,2) +  543.500u : 
+ (V(1,2) <   -4.000 ) ?   79.740u * V(1,2) +  626.570u : 
+ (V(1,2) <   -3.500 ) ?  108.100u * V(1,2) +  740.010u : 
+ (V(1,2) <   -3.000 ) ?  154.900u * V(1,2) +  903.810u : 
+ (V(1,2) <   -2.500 ) ?  240.560u * V(1,2) +    1.161m : 
+ (V(1,2) <   -2.000 ) ?  424.440u * V(1,2) +    1.620m : 
+ (V(1,2) <   -1.500 ) ?  936.780u * V(1,2) +    2.645m : 
+ (V(1,2) <   -1.400 ) ?    1.800m * V(1,2) +    3.940m : 
+ (V(1,2) <   -1.300 ) ?    2.300m * V(1,2) +    4.640m : 
+ (V(1,2) <   -1.200 ) ?    3.200m * V(1,2) +    5.810m : 
+ (V(1,2) <   -1.100 ) ?    4.600m * V(1,2) +    7.490m : 
+ (V(1,2) <   -1.000 ) ?    7.300m * V(1,2) +   10.460m : 
+ (V(1,2) < -900.000m) ?   13.100m * V(1,2) +   16.260m : 
+ (V(1,2) < -800.000m) ?   28.000m * V(1,2) +   29.670m : 
+ (V(1,2) < -700.000m) ?   68.400m * V(1,2) +   61.990m : 
+ (V(1,2) < -600.000m) ?   66.500m * V(1,2) +   60.660m : 
+ (V(1,2) < -500.000m) ?  -22.000m * V(1,2) +    7.560m : 
+ (V(1,2) < -400.000m) ?  -36.500m * V(1,2) +  310.000u : 
+ (V(1,2) < -300.000m) ?  -37.200m * V(1,2) +   30.000u : 
+ (V(1,2) < -200.000m) ?  -37.300m * V(1,2) +   -0.000  : 
+ (V(1,2) < -100.000m) ?  -37.400m * V(1,2) +  -20.000u : 
+ (V(1,2) <    0.000 ) ?  -37.200m * V(1,2) +   -2.490p : 
+ (V(1,2) <  100.000m) ?  -36.600m * V(1,2) +   -2.490p : 
+ (V(1,2) <  200.000m) ?  -35.400m * V(1,2) + -120.000u : 
+ (V(1,2) <  300.000m) ?  -34.300m * V(1,2) + -340.000u : 
+ (V(1,2) <  400.000m) ?  -33.200m * V(1,2) + -670.000u : 
+ (V(1,2) <  500.000m) ?  -32.000m * V(1,2) +   -1.150m : 
+ (V(1,2) <  600.000m) ?  -30.900m * V(1,2) +   -1.700m : 
+ (V(1,2) <  700.000m) ?  -29.700m * V(1,2) +   -2.420m : 
+ (V(1,2) <  800.000m) ?  -28.600m * V(1,2) +   -3.190m : 
+ (V(1,2) <  900.000m) ?  -27.500m * V(1,2) +   -4.070m : 
+ (V(1,2) <    1.000 ) ?  -26.300m * V(1,2) +   -5.150m : 
+ (V(1,2) <    1.100 ) ?  -25.200m * V(1,2) +   -6.250m : 
+ (V(1,2) <    1.200 ) ?  -24.000m * V(1,2) +   -7.570m : 
+ (V(1,2) <    1.300 ) ?  -22.900m * V(1,2) +   -8.890m : 
+ (V(1,2) <    1.400 ) ?  -21.800m * V(1,2) +  -10.320m : 
+ (V(1,2) <    1.500 ) ?  -20.500m * V(1,2) +  -12.140m : 
+ (V(1,2) <    1.600 ) ?  -19.400m * V(1,2) +  -13.790m : 
+ (V(1,2) <    1.700 ) ?  -18.400m * V(1,2) +  -15.390m : 
+ (V(1,2) <    1.800 ) ?  -17.200m * V(1,2) +  -17.430m : 
+ (V(1,2) <    1.900 ) ?  -16.100m * V(1,2) +  -19.410m : 
+ (V(1,2) <    2.000 ) ?  -14.900m * V(1,2) +  -21.690m : 
+ (V(1,2) <    2.100 ) ?  -13.800m * V(1,2) +  -23.890m : 
+ (V(1,2) <    2.200 ) ?  -12.700m * V(1,2) +  -26.200m : 
+ (V(1,2) <    2.300 ) ?  -11.500m * V(1,2) +  -28.840m : 
+ (V(1,2) <    2.400 ) ?  -10.400m * V(1,2) +  -31.370m : 
+ (V(1,2) <    2.500 ) ?   -9.300m * V(1,2) +  -34.010m : 
+ (V(1,2) <    2.600 ) ?   -8.100m * V(1,2) +  -37.010m : 
+ (V(1,2) <    2.700 ) ?   -7.000m * V(1,2) +  -39.870m : 
+ (V(1,2) <    2.800 ) ?   -5.900m * V(1,2) +  -42.840m : 
+ (V(1,2) <    2.900 ) ?   -4.800m * V(1,2) +  -45.920m : 
+ (V(1,2) <    3.000 ) ?   -3.600m * V(1,2) +  -49.400m : 
+ (V(1,2) <    3.100 ) ?   -2.500m * V(1,2) +  -52.700m : 
+ (V(1,2) <    3.200 ) ?   -4.800m * V(1,2) +  -45.570m : 
+ (V(1,2) <    3.300 ) ?   -7.000m * V(1,2) +  -38.530m : 
+ (V(1,2) <    3.400 ) ?   -5.100m * V(1,2) +  -44.800m : 
+ (V(1,2) <    3.500 ) ?   -4.100m * V(1,2) +  -48.200m : 
+ (V(1,2) <    3.600 ) ?   -3.600m * V(1,2) +  -49.950m : 
+ (V(1,2) <    3.700 ) ?   -3.300m * V(1,2) +  -51.030m : 
+ (V(1,2) <    3.800 ) ?   -3.000m * V(1,2) +  -52.140m : 
+ (V(1,2) <    3.900 ) ?   -2.900m * V(1,2) +  -52.520m : 
+ (V(1,2) <    4.000 ) ?   -2.800m * V(1,2) +  -52.910m : 
+ (V(1,2) <    4.100 ) ?   -2.600m * V(1,2) +  -53.710m : 
+ (V(1,2) <    4.200 ) ?   -2.600m * V(1,2) +  -53.710m : 
+ (V(1,2) <    4.300 ) ?   -2.400m * V(1,2) +  -54.550m : 
+ (V(1,2) <    4.400 ) ?   -2.500m * V(1,2) +  -54.120m : 
+ (V(1,2) <    4.500 ) ?   -2.300m * V(1,2) +  -55.000m : 
+ (V(1,2) <    4.600 ) ?   -2.300m * V(1,2) +  -55.000m : 
+ (V(1,2) <    4.700 ) ?   -2.300m * V(1,2) +  -55.000m : 
+ (V(1,2) <    4.800 ) ?   -2.200m * V(1,2) +  -55.470m : 
+ (V(1,2) <    4.900 ) ?   -2.200m * V(1,2) +  -55.470m : 
+ (V(1,2) <    5.000 ) ?   -2.200m * V(1,2) +  -55.470m : 
+ (V(1,2) <    5.100 ) ?   -2.100m * V(1,2) +  -55.970m : 
+ (V(1,2) <    5.200 ) ?   -1.700m * V(1,2) +  -58.010m : 
+ (V(1,2) <    5.300 ) ?    9.700m * V(1,2) + -117.290m : 
+ (V(1,2) <    5.400 ) ?  310.400m * V(1,2) +   -1.711  : 
+ (V(1,2) <    5.500 ) ?  372.100m * V(1,2) +   -2.044  : 
+ (V(1,2) <    5.600 ) ? -423.500m * V(1,2) +    2.332  : 
+ (V(1,2) <    5.700 ) ? -164.700m * V(1,2) +  882.340m : 
+ (V(1,2) <    5.800 ) ?  -56.900m * V(1,2) +  267.880m : 
+ (V(1,2) <    5.900 ) ?  -26.800m * V(1,2) +   93.300m : 
+ (V(1,2) <    6.000 ) ?  -14.900m * V(1,2) +   23.090m : 
+ (V(1,2) <    6.100 ) ?   -9.300m * V(1,2) +  -10.510m : 
+ (V(1,2) <    6.200 ) ?   -5.600m * V(1,2) +  -33.080m : 
+ (V(1,2) <    6.300 ) ?   -4.300m * V(1,2) +  -41.140m : 
+ (V(1,2) <    6.400 ) ?   -3.600m * V(1,2) +  -45.550m : 
+ (V(1,2) <    6.500 ) ?   -3.200m * V(1,2) +  -48.110m : 
+ (V(1,2) <    7.000 ) ?   -2.480m * V(1,2) +  -52.790m : 
+ (V(1,2) <    7.500 ) ?   -2.040m * V(1,2) +  -55.870m : 
+ (V(1,2) <    8.000 ) ?   -1.900m * V(1,2) +  -56.920m : 
+ (V(1,2) <    8.500 ) ?   -1.820m * V(1,2) +  -57.560m : 
+ (V(1,2) <    9.000 ) ?   -1.780m * V(1,2) +  -57.900m : 
+ (V(1,2) <    9.500 ) ?   -1.740m * V(1,2) +  -58.260m : 
+ (V(1,2) <   10.000 ) ?   -2.180m * V(1,2) +  -54.080m : 
+    1.000n * V(1,2) +  -75.880m
.ENDS


.SUBCKT	PULL_DOWN	3    4   1   2
; connections:      Out+ Out In+ In
B1	3 4	V=
+ (V(1,2) <   -5.000 ) ?    1.000n * V(1,2) + -742.990u : 
+ (V(1,2) <   -4.500 ) ? -195.880u * V(1,2) +   -1.722m : 
+ (V(1,2) <   -4.000 ) ? -255.960u * V(1,2) +   -1.993m : 
+ (V(1,2) <   -3.500 ) ? -342.180u * V(1,2) +   -2.338m : 
+ (V(1,2) <   -3.000 ) ? -500.000u * V(1,2) +   -2.890m : 
+ (V(1,2) <   -2.500 ) ? -800.000u * V(1,2) +   -3.790m : 
+ (V(1,2) <   -2.000 ) ?   -1.420m * V(1,2) +   -5.340m : 
+ (V(1,2) <   -1.500 ) ?   -3.260m * V(1,2) +   -9.020m : 
+ (V(1,2) <   -1.400 ) ?   -6.100m * V(1,2) +  -13.280m : 
+ (V(1,2) <   -1.300 ) ?   -8.300m * V(1,2) +  -16.360m : 
+ (V(1,2) <   -1.200 ) ?  -11.700m * V(1,2) +  -20.780m : 
+ (V(1,2) <   -1.100 ) ?  -17.600m * V(1,2) +  -27.860m : 
+ (V(1,2) <   -1.000 ) ?  -29.200m * V(1,2) +  -40.620m : 
+ (V(1,2) < -900.000m) ?  -55.700m * V(1,2) +  -67.120m : 
+ (V(1,2) < -800.000m) ? -129.800m * V(1,2) + -133.810m : 
+ (V(1,2) < -700.000m) ? -286.300m * V(1,2) + -259.010m : 
+ (V(1,2) < -600.000m) ?  -99.800m * V(1,2) + -128.460m : 
+ (V(1,2) < -500.000m) ?   91.400m * V(1,2) +  -13.740m : 
+ (V(1,2) < -400.000m) ?  110.200m * V(1,2) +   -4.340m : 
+ (V(1,2) < -300.000m) ?  114.900m * V(1,2) +   -2.460m : 
+ (V(1,2) < -200.000m) ?  119.000m * V(1,2) +   -1.230m : 
+ (V(1,2) < -100.000m) ?  123.100m * V(1,2) + -410.000u : 
+ (V(1,2) <    0.000 ) ?  127.200m * V(1,2) +    1.580n : 
+ (V(1,2) <  100.000m) ?  125.500m * V(1,2) +    1.580n : 
+ (V(1,2) <  200.000m) ?  118.300m * V(1,2) +  720.000u : 
+ (V(1,2) <  300.000m) ?  111.100m * V(1,2) +    2.160m : 
+ (V(1,2) <  400.000m) ?  104.400m * V(1,2) +    4.170m : 
+ (V(1,2) <  500.000m) ?   97.700m * V(1,2) +    6.850m : 
+ (V(1,2) <  600.000m) ?   91.400m * V(1,2) +   10.000m : 
+ (V(1,2) <  700.000m) ?   85.200m * V(1,2) +   13.720m : 
+ (V(1,2) <  800.000m) ?   79.200m * V(1,2) +   17.920m : 
+ (V(1,2) <  900.000m) ?   73.500m * V(1,2) +   22.480m : 
+ (V(1,2) <    1.000 ) ?   67.900m * V(1,2) +   27.520m : 
+ (V(1,2) <    1.100 ) ?   62.500m * V(1,2) +   32.920m : 
+ (V(1,2) <    1.200 ) ?   57.200m * V(1,2) +   38.750m : 
+ (V(1,2) <    1.300 ) ?   52.200m * V(1,2) +   44.750m : 
+ (V(1,2) <    1.400 ) ?   47.300m * V(1,2) +   51.120m : 
+ (V(1,2) <    1.500 ) ?   42.400m * V(1,2) +   57.980m : 
+ (V(1,2) <    1.600 ) ?   37.600m * V(1,2) +   65.180m : 
+ (V(1,2) <    1.700 ) ?   33.500m * V(1,2) +   71.740m : 
+ (V(1,2) <    1.800 ) ?   29.100m * V(1,2) +   79.220m : 
+ (V(1,2) <    1.900 ) ?   24.900m * V(1,2) +   86.780m : 
+ (V(1,2) <    2.000 ) ?   20.800m * V(1,2) +   94.570m : 
+ (V(1,2) <    2.100 ) ?   16.900m * V(1,2) +  102.370m : 
+ (V(1,2) <    2.200 ) ?   13.000m * V(1,2) +  110.560m : 
+ (V(1,2) <    2.300 ) ?    9.300m * V(1,2) +  118.700m : 
+ (V(1,2) <    2.400 ) ?    4.700m * V(1,2) +  129.280m : 
+ (V(1,2) <    2.500 ) ?    1.600m * V(1,2) +  136.720m : 
+ (V(1,2) <    2.600 ) ?  800.000u * V(1,2) +  138.720m : 
+ (V(1,2) <    2.700 ) ?  900.000u * V(1,2) +  138.460m : 
+ (V(1,2) <    2.800 ) ?  900.000u * V(1,2) +  138.460m : 
+ (V(1,2) <    2.900 ) ?  900.000u * V(1,2) +  138.460m : 
+ (V(1,2) <    3.000 ) ?  800.000u * V(1,2) +  138.750m : 
+ (V(1,2) <    3.100 ) ?  900.000u * V(1,2) +  138.450m : 
+ (V(1,2) <    3.200 ) ?  900.000u * V(1,2) +  138.450m : 
+ (V(1,2) <    3.300 ) ?  800.000u * V(1,2) +  138.770m : 
+ (V(1,2) <    3.400 ) ?  900.000u * V(1,2) +  138.440m : 
+ (V(1,2) <    3.500 ) ?  900.000u * V(1,2) +  138.440m : 
+ (V(1,2) <    3.600 ) ?  900.000u * V(1,2) +  138.440m : 
+ (V(1,2) <    3.700 ) ?  800.000u * V(1,2) +  138.800m : 
+ (V(1,2) <    3.800 ) ?  900.000u * V(1,2) +  138.430m : 
+ (V(1,2) <    3.900 ) ?  900.000u * V(1,2) +  138.430m : 
+ (V(1,2) <    4.000 ) ?  900.000u * V(1,2) +  138.430m : 
+ (V(1,2) <    4.100 ) ?  800.000u * V(1,2) +  138.830m : 
+ (V(1,2) <    4.200 ) ?  900.000u * V(1,2) +  138.420m : 
+ (V(1,2) <    4.300 ) ?  900.000u * V(1,2) +  138.420m : 
+ (V(1,2) <    4.400 ) ?  900.000u * V(1,2) +  138.420m : 
+ (V(1,2) <    4.500 ) ?  800.000u * V(1,2) +  138.860m : 
+ (V(1,2) <    4.600 ) ?  900.000u * V(1,2) +  138.410m : 
+ (V(1,2) <    4.700 ) ?  900.000u * V(1,2) +  138.410m : 
+ (V(1,2) <    4.800 ) ?  900.000u * V(1,2) +  138.410m : 
+ (V(1,2) <    4.900 ) ?  800.000u * V(1,2) +  138.890m : 
+ (V(1,2) <    5.000 ) ?  900.000u * V(1,2) +  138.400m : 
+ (V(1,2) <    5.100 ) ?  900.000u * V(1,2) +  138.400m : 
+ (V(1,2) <    5.200 ) ?  400.000u * V(1,2) +  140.950m : 
+ (V(1,2) <    5.300 ) ?  -13.200m * V(1,2) +  211.670m : 
+ (V(1,2) <    5.400 ) ? -171.100m * V(1,2) +    1.049  : 
+ (V(1,2) <    5.500 ) ?   36.700m * V(1,2) +  -73.580m : 
+ (V(1,2) <    5.600 ) ?   94.800m * V(1,2) + -393.130m : 
+ (V(1,2) <    5.700 ) ?   32.300m * V(1,2) +  -43.130m : 
+ (V(1,2) <    5.800 ) ?   12.300m * V(1,2) +   70.870m : 
+ (V(1,2) <    5.900 ) ?    6.200m * V(1,2) +  106.250m : 
+ (V(1,2) <    6.000 ) ?    3.900m * V(1,2) +  119.820m : 
+ (V(1,2) <    6.100 ) ?    2.600m * V(1,2) +  127.620m : 
+ (V(1,2) <    6.200 ) ?    1.800m * V(1,2) +  132.500m : 
+ (V(1,2) <    6.300 ) ?    1.500m * V(1,2) +  134.360m : 
+ (V(1,2) <    6.400 ) ?    1.300m * V(1,2) +  135.620m : 
+ (V(1,2) <    6.500 ) ?    1.200m * V(1,2) +  136.260m : 
+ (V(1,2) <    7.000 ) ?    1.060m * V(1,2) +  137.170m : 
+ (V(1,2) <    7.500 ) ?  940.000u * V(1,2) +  138.010m : 
+ (V(1,2) <    8.000 ) ?  900.000u * V(1,2) +  138.310m : 
+ (V(1,2) <    8.500 ) ?  900.000u * V(1,2) +  138.310m : 
+ (V(1,2) <    9.000 ) ?  880.000u * V(1,2) +  138.480m : 
+ (V(1,2) <    9.500 ) ?  900.000u * V(1,2) +  138.300m : 
+ (V(1,2) <   10.000 ) ?    1.000m * V(1,2) +  137.350m : 
+    1.000n * V(1,2) +  147.350m
.ENDS


.SUBCKT	PWR_CLAMP	3    4   1   2
; connections:      Out+ Out In+ In
B1	3 4	I=
+ (V(1,2) <   -5.000 ) ?    1.000n * V(1,2) +   23.260  : 
+ (V(1,2) <   -4.800 ) ?   -5.550  * V(1,2) +   -4.490  : 
+ (V(1,2) <   -4.600 ) ?   -5.500  * V(1,2) +   -4.250  : 
+ (V(1,2) <   -4.400 ) ?   -5.550  * V(1,2) +   -4.480  : 
+ (V(1,2) <   -4.200 ) ?   -5.550  * V(1,2) +   -4.480  : 
+ (V(1,2) <   -4.000 ) ?   -5.550  * V(1,2) +   -4.480  : 
+ (V(1,2) <   -3.800 ) ?   -5.500  * V(1,2) +   -4.280  : 
+ (V(1,2) <   -3.600 ) ?   -5.550  * V(1,2) +   -4.470  : 
+ (V(1,2) <   -3.400 ) ?   -5.500  * V(1,2) +   -4.290  : 
+ (V(1,2) <   -3.200 ) ?   -5.550  * V(1,2) +   -4.460  : 
+ (V(1,2) <   -3.000 ) ?   -5.500  * V(1,2) +   -4.300  : 
+ (V(1,2) <   -2.800 ) ?   -5.500  * V(1,2) +   -4.300  : 
+ (V(1,2) <   -2.600 ) ?   -5.500  * V(1,2) +   -4.300  : 
+ (V(1,2) <   -2.400 ) ?   -5.450  * V(1,2) +   -4.170  : 
+ (V(1,2) <   -2.200 ) ?   -5.500  * V(1,2) +   -4.290  : 
+ (V(1,2) <   -2.000 ) ?   -5.450  * V(1,2) +   -4.180  : 
+ (V(1,2) <   -1.950 ) ?   -5.400  * V(1,2) +   -4.080  : 
+ (V(1,2) <   -1.900 ) ?   -5.400  * V(1,2) +   -4.080  : 
+ (V(1,2) <   -1.850 ) ?   -5.400  * V(1,2) +   -4.080  : 
+ (V(1,2) <   -1.800 ) ?   -5.400  * V(1,2) +   -4.080  : 
+ (V(1,2) <   -1.750 ) ?   -5.400  * V(1,2) +   -4.080  : 
+ (V(1,2) <   -1.700 ) ?   -5.600  * V(1,2) +   -4.430  : 
+ (V(1,2) <   -1.650 ) ?   -5.200  * V(1,2) +   -3.750  : 
+ (V(1,2) <   -1.600 ) ?   -5.400  * V(1,2) +   -4.080  : 
+ (V(1,2) <   -1.550 ) ?   -5.400  * V(1,2) +   -4.080  : 
+ (V(1,2) <   -1.500 ) ?   -5.400  * V(1,2) +   -4.080  : 
+ (V(1,2) <   -1.450 ) ?   -5.400  * V(1,2) +   -4.080  : 
+ (V(1,2) <   -1.400 ) ?   -5.200  * V(1,2) +   -3.790  : 
+ (V(1,2) <   -1.350 ) ?   -5.400  * V(1,2) +   -4.070  : 
+ (V(1,2) <   -1.300 ) ?   -5.200  * V(1,2) +   -3.800  : 
+ (V(1,2) <   -1.250 ) ?   -5.200  * V(1,2) +   -3.800  : 
+ (V(1,2) <   -1.200 ) ?   -5.400  * V(1,2) +   -4.050  : 
+ (V(1,2) <   -1.150 ) ?   -5.000  * V(1,2) +   -3.570  : 
+ (V(1,2) <   -1.100 ) ?   -5.200  * V(1,2) +   -3.800  : 
+ (V(1,2) <   -1.050 ) ?   -5.000  * V(1,2) +   -3.580  : 
+ (V(1,2) <   -1.000 ) ?   -5.200  * V(1,2) +   -3.790  : 
+ (V(1,2) < -950.000m) ?   -4.800  * V(1,2) +   -3.390  : 
+ (V(1,2) < -900.000m) ?   -4.803  * V(1,2) +   -3.393  : 
+ (V(1,2) < -850.000m) ?   -4.427  * V(1,2) +   -3.054  : 
+ (V(1,2) < -800.000m) ?   -4.427  * V(1,2) +   -3.054  : 
+ (V(1,2) < -750.000m) ?   -3.417  * V(1,2) +   -2.246  : 
+ (V(1,2) < -700.000m) ?   -3.417  * V(1,2) +   -2.246  : 
+ (V(1,2) < -650.000m) ?   -1.320  * V(1,2) + -778.350m : 
+ (V(1,2) < -600.000m) ?   -1.320  * V(1,2) + -778.350m : 
+ (V(1,2) < -550.000m) ? -128.800m * V(1,2) +  -63.750m : 
+ (V(1,2) < -500.000m) ? -128.835m * V(1,2) +  -63.769m : 
+ (V(1,2) < -450.000m) ?   -6.192m * V(1,2) +   -2.448m : 
+ (V(1,2) < -400.000m) ?   -6.192m * V(1,2) +   -2.448m : 
+ (V(1,2) < -350.000m) ? -277.200u * V(1,2) +  -81.860u : 
+ (V(1,2) < -300.000m) ? -277.200u * V(1,2) +  -81.860u : 
+ (V(1,2) < -250.000m) ?  -12.466u * V(1,2) +   -2.440u : 
+ (V(1,2) < -200.000m) ?  -12.367u * V(1,2) +   -2.415u : 
+ (V(1,2) < -150.000m) ? -551.600n * V(1,2) +  -51.940n : 
+ (V(1,2) < -100.000m) ? -551.600n * V(1,2) +  -51.940n : 
+ (V(1,2) <  -50.000m) ?  -24.800n * V(1,2) +  740.000p : 
+ (V(1,2) <    0.000 ) ?  -24.906n * V(1,2) +  734.690p : 
+    1.000n * V(1,2) +  734.690p
.ENDS

  
************
*SRC=PCEBB12211A0S2_T;PCEBB12211_T;IBIS_BUFFER;I/O;typical
*SYM=IBISO
.SUBCKT PCEBB122112_T 100 4 300 400 500
*Connections    Input Output VCC VEE Enable
;
; E:\SPICE4\CIRCUITS\APPS\IBIS\82375sb.ibs
; Tuesday, September 08, 1998 16:14:45
;
; Referenced by:
; LA31, LA30, LA29, LA28, LA27
; LA26, LA25, LA24, LA16, LA15
; LA14, LA13, LA12, LA11, LA10
; LA9, LA8, LA7, LA6, LA5
; LA4, LA23, LA3, LA22, LA2
; LA21, LA20, LA19, LA18, LA17
; AD31, AD30, AD29, AD28, AD27
; AD26, AD25, AD24, C/BE3#, AD23
; AD22, AD21, AD20, AD19, AD18
; AD17, AD16, C/BE2#, FRAME#, IRDY#
; TRDY#, DEVSEL#, STOP#, PCILOCK#, PERR#
; PAR, C/BE1#, AD15, AD14, AD13
; AD12, AD11, AD10, AD9, C/BE0#
; AD8, AD7, AD6, AD5, AD4
; AD3, AD2, AD1, AD0, LOCK#
; START#, EXRDY, SLBURST#, MSBURST#, M/IO#
; W/R#, BE3#, BE2#, BE1#, BE0#
*Passed Parameters; typical
*DEFINE {RTF}=  45.211k  ;2.61V/1.18ns
*DEFINE {RTR}=  46.352k  ;1.95V/903.86ps
* Input Control
B1 820 0 V=V(100) & V(500)
B2 830 0 V= V(500) & ~V(100)
* Up and Down Ramps
B3 300 850 I= V(830) > 1.2   ? 0 : V(300,850) / {RTR}
B4 840 400 I= V(820) > 1.2 ? 0 : V(840,400) / {RTF}
C1 300 850 .01P
C2 840 400 .01P
S1 220 850 0 820 SMOD
S2 840 220 0 830 SMOD
.MODEL SMOD SW RON=.1M ROFF=1E15 VT=-1.2 VH=.1
G1 8 400 2 8 1
R1 6 400 1
G2 300 8 8 3 1
R2 300 6 1
* Pull-up/Pull-down structures; typical

XEPL_DN 2 400 8 840 PULL_DOWN


XEPL_UP 3 300 850 8 PULL_UP

* Diode Clamps

XPWR_CLAMP 6 300 300 6 PWR_CLAMP


XGND_OUT 6 400 6 400 GND_CLAMP

* Package Parasitics; typical
ROSNB 5 1 100
ROPKG 1 4 159.5m
COPKG 4 400 1.86pF
CCOMP 5 400 2.30pF
LOPKG 5 1 12.13nH
* Voltage Sources for measuring currents
V5 6 5 
V6 8 6 
V7 220 8 
.ENDS


.SUBCKT	GND_CLAMP	3    4   1   2
; connections:      Out+ Out In+ In
B1	3 4	I=
+ (V(1,2) <   -5.000 ) ?    1.000n * V(1,2) +  -81.600  : 
+ (V(1,2) <   -4.800 ) ?   19.850  * V(1,2) +   17.650  : 
+ (V(1,2) <   -4.600 ) ?   19.850  * V(1,2) +   17.650  : 
+ (V(1,2) <   -4.400 ) ?   19.850  * V(1,2) +   17.650  : 
+ (V(1,2) <   -4.200 ) ?   19.850  * V(1,2) +   17.650  : 
+ (V(1,2) <   -4.000 ) ?   19.800  * V(1,2) +   17.440  : 
+ (V(1,2) <   -3.800 ) ?   19.800  * V(1,2) +   17.440  : 
+ (V(1,2) <   -3.600 ) ?   19.850  * V(1,2) +   17.630  : 
+ (V(1,2) <   -3.400 ) ?   19.750  * V(1,2) +   17.270  : 
+ (V(1,2) <   -3.200 ) ?   19.800  * V(1,2) +   17.440  : 
+ (V(1,2) <   -3.000 ) ?   19.750  * V(1,2) +   17.280  : 
+ (V(1,2) <   -2.800 ) ?   19.700  * V(1,2) +   17.130  : 
+ (V(1,2) <   -2.600 ) ?   19.700  * V(1,2) +   17.130  : 
+ (V(1,2) <   -2.400 ) ?   19.650  * V(1,2) +   17.000  : 
+ (V(1,2) <   -2.200 ) ?   19.600  * V(1,2) +   16.880  : 
+ (V(1,2) <   -2.000 ) ?   19.550  * V(1,2) +   16.770  : 
+ (V(1,2) <   -1.950 ) ?   19.600  * V(1,2) +   16.870  : 
+ (V(1,2) <   -1.900 ) ?   19.400  * V(1,2) +   16.480  : 
+ (V(1,2) <   -1.850 ) ?   19.600  * V(1,2) +   16.860  : 
+ (V(1,2) <   -1.800 ) ?   19.400  * V(1,2) +   16.490  : 
+ (V(1,2) <   -1.750 ) ?   19.400  * V(1,2) +   16.490  : 
+ (V(1,2) <   -1.700 ) ?   19.400  * V(1,2) +   16.490  : 
+ (V(1,2) <   -1.650 ) ?   19.200  * V(1,2) +   16.150  : 
+ (V(1,2) <   -1.600 ) ?   19.400  * V(1,2) +   16.480  : 
+ (V(1,2) <   -1.550 ) ?   19.200  * V(1,2) +   16.160  : 
+ (V(1,2) <   -1.500 ) ?   19.200  * V(1,2) +   16.160  : 
+ (V(1,2) <   -1.450 ) ?   19.000  * V(1,2) +   15.860  : 
+ (V(1,2) <   -1.400 ) ?   19.200  * V(1,2) +   16.150  : 
+ (V(1,2) <   -1.350 ) ?   18.800  * V(1,2) +   15.590  : 
+ (V(1,2) <   -1.300 ) ?   19.000  * V(1,2) +   15.860  : 
+ (V(1,2) <   -1.250 ) ?   18.600  * V(1,2) +   15.340  : 
+ (V(1,2) <   -1.200 ) ?   18.800  * V(1,2) +   15.590  : 
+ (V(1,2) <   -1.150 ) ?   18.200  * V(1,2) +   14.870  : 
+ (V(1,2) <   -1.100 ) ?   18.400  * V(1,2) +   15.100  : 
+ (V(1,2) <   -1.050 ) ?   17.600  * V(1,2) +   14.220  : 
+ (V(1,2) <   -1.000 ) ?   17.600  * V(1,2) +   14.220  : 
+ (V(1,2) < -950.000m) ?   16.400  * V(1,2) +   13.020  : 
+ (V(1,2) < -900.000m) ?   16.400  * V(1,2) +   13.020  : 
+ (V(1,2) < -850.000m) ?   12.600  * V(1,2) +    9.600  : 
+ (V(1,2) < -800.000m) ?   12.750  * V(1,2) +    9.728  : 
+ (V(1,2) < -750.000m) ?    4.436  * V(1,2) +    3.076  : 
+ (V(1,2) < -700.000m) ?    4.436  * V(1,2) +    3.076  : 
+ (V(1,2) < -650.000m) ?  280.800m * V(1,2) +  167.640m : 
+ (V(1,2) < -600.000m) ?  280.729m * V(1,2) +  167.594m : 
+ (V(1,2) < -550.000m) ?    8.196m * V(1,2) +    4.074m : 
+ (V(1,2) < -500.000m) ?    8.196m * V(1,2) +    4.074m : 
+ (V(1,2) < -450.000m) ?  232.000u * V(1,2) +   92.080u : 
+ (V(1,2) < -400.000m) ?  231.872u * V(1,2) +   92.022u : 
+ (V(1,2) < -350.000m) ?    7.004u * V(1,2) +    2.075u : 
+ (V(1,2) < -300.000m) ?    7.004u * V(1,2) +    2.075u : 
+ (V(1,2) < -250.000m) ?  249.000n * V(1,2) +   48.700n : 
+ (V(1,2) < -200.000m) ?  248.800n * V(1,2) +   48.650n : 
+ (V(1,2) < -150.000m) ?   11.609n * V(1,2) +    1.212n : 
+ (V(1,2) < -100.000m) ?   11.526n * V(1,2) +    1.199n : 
+ (V(1,2) <  -50.000m) ?  188.000p * V(1,2) +   65.580p : 
+ (V(1,2) <    0.000 ) ?  187.800p * V(1,2) +   65.570p : 
+ (V(1,2) <    5.000 ) ?   36.942p * V(1,2) +   65.570p : 
+    1.000n * V(1,2) +  250.280p
.ENDS


.SUBCKT	PULL_UP	3    4   1   2
; connections:  Out+ Out In+ In
B1	3 4	V=
+ (V(1,2) <   -5.000 ) ?    1.000n * V(1,2) +  293.260u : 
+ (V(1,2) <   -4.500 ) ?   77.520u * V(1,2) +  680.860u : 
+ (V(1,2) <   -4.000 ) ?  101.460u * V(1,2) +  788.590u : 
+ (V(1,2) <   -3.500 ) ?  138.520u * V(1,2) +  936.830u : 
+ (V(1,2) <   -3.000 ) ?  200.480u * V(1,2) +    1.154m : 
+ (V(1,2) <   -2.500 ) ?  316.020u * V(1,2) +    1.500m : 
+ (V(1,2) <   -2.000 ) ?  571.760u * V(1,2) +    2.140m : 
+ (V(1,2) <   -1.500 ) ?    1.348m * V(1,2) +    3.692m : 
+ (V(1,2) <   -1.400 ) ?    2.600m * V(1,2) +    5.570m : 
+ (V(1,2) <   -1.300 ) ?    3.500m * V(1,2) +    6.830m : 
+ (V(1,2) <   -1.200 ) ?    5.100m * V(1,2) +    8.910m : 
+ (V(1,2) <   -1.100 ) ?    7.900m * V(1,2) +   12.270m : 
+ (V(1,2) <   -1.000 ) ?   13.700m * V(1,2) +   18.650m : 
+ (V(1,2) < -900.000m) ?   28.500m * V(1,2) +   33.450m : 
+ (V(1,2) < -800.000m) ?   76.500m * V(1,2) +   76.650m : 
+ (V(1,2) < -700.000m) ?  145.900m * V(1,2) +  132.170m : 
+ (V(1,2) < -600.000m) ?   -4.900m * V(1,2) +   26.610m : 
+ (V(1,2) < -500.000m) ?  -47.700m * V(1,2) +  930.000u : 
+ (V(1,2) < -400.000m) ?  -49.400m * V(1,2) +   80.000u : 
+ (V(1,2) < -300.000m) ?  -49.500m * V(1,2) +   40.000u : 
+ (V(1,2) < -200.000m) ?  -49.700m * V(1,2) +  -20.000u : 
+ (V(1,2) < -100.000m) ?  -49.600m * V(1,2) +    0.000  : 
+ (V(1,2) <    0.000 ) ?  -49.600m * V(1,2) +   -4.640p : 
+ (V(1,2) <  100.000m) ?  -48.800m * V(1,2) +   -4.640p : 
+ (V(1,2) <  200.000m) ?  -47.400m * V(1,2) + -140.000u : 
+ (V(1,2) <  300.000m) ?  -45.900m * V(1,2) + -440.000u : 
+ (V(1,2) <  400.000m) ?  -44.500m * V(1,2) + -860.000u : 
+ (V(1,2) <  500.000m) ?  -43.000m * V(1,2) +   -1.460m : 
+ (V(1,2) <  600.000m) ?  -41.600m * V(1,2) +   -2.160m : 
+ (V(1,2) <  700.000m) ?  -40.200m * V(1,2) +   -3.000m : 
+ (V(1,2) <  800.000m) ?  -38.800m * V(1,2) +   -3.980m : 
+ (V(1,2) <  900.000m) ?  -37.300m * V(1,2) +   -5.180m : 
+ (V(1,2) <    1.000 ) ?  -35.800m * V(1,2) +   -6.530m : 
+ (V(1,2) <    1.100 ) ?  -34.500m * V(1,2) +   -7.830m : 
+ (V(1,2) <    1.200 ) ?  -33.000m * V(1,2) +   -9.480m : 
+ (V(1,2) <    1.300 ) ?  -31.600m * V(1,2) +  -11.160m : 
+ (V(1,2) <    1.400 ) ?  -30.100m * V(1,2) +  -13.110m : 
+ (V(1,2) <    1.500 ) ?  -28.700m * V(1,2) +  -15.070m : 
+ (V(1,2) <    1.600 ) ?  -27.200m * V(1,2) +  -17.320m : 
+ (V(1,2) <    1.700 ) ?  -25.700m * V(1,2) +  -19.720m : 
+ (V(1,2) <    1.800 ) ?  -24.400m * V(1,2) +  -21.930m : 
+ (V(1,2) <    1.900 ) ?  -23.000m * V(1,2) +  -24.450m : 
+ (V(1,2) <    2.000 ) ?  -21.600m * V(1,2) +  -27.110m : 
+ (V(1,2) <    2.100 ) ?  -20.100m * V(1,2) +  -30.110m : 
+ (V(1,2) <    2.200 ) ?  -18.600m * V(1,2) +  -33.260m : 
+ (V(1,2) <    2.300 ) ?  -17.300m * V(1,2) +  -36.120m : 
+ (V(1,2) <    2.400 ) ?  -15.800m * V(1,2) +  -39.570m : 
+ (V(1,2) <    2.500 ) ?  -14.400m * V(1,2) +  -42.930m : 
+ (V(1,2) <    2.600 ) ?  -12.900m * V(1,2) +  -46.680m : 
+ (V(1,2) <    2.700 ) ?  -11.600m * V(1,2) +  -50.060m : 
+ (V(1,2) <    2.800 ) ?  -10.100m * V(1,2) +  -54.110m : 
+ (V(1,2) <    2.900 ) ?   -8.600m * V(1,2) +  -58.310m : 
+ (V(1,2) <    3.000 ) ?   -7.300m * V(1,2) +  -62.080m : 
+ (V(1,2) <    3.100 ) ?   -5.800m * V(1,2) +  -66.580m : 
+ (V(1,2) <    3.200 ) ?   -4.400m * V(1,2) +  -70.920m : 
+ (V(1,2) <    3.300 ) ?   -2.900m * V(1,2) +  -75.720m : 
+ (V(1,2) <    3.400 ) ?   -7.700m * V(1,2) +  -59.880m : 
+ (V(1,2) <    3.500 ) ?   -9.800m * V(1,2) +  -52.740m : 
+ (V(1,2) <    3.600 ) ?   -6.700m * V(1,2) +  -63.590m : 
+ (V(1,2) <    3.700 ) ?   -5.600m * V(1,2) +  -67.550m : 
+ (V(1,2) <    3.800 ) ?   -4.900m * V(1,2) +  -70.140m : 
+ (V(1,2) <    3.900 ) ?   -4.500m * V(1,2) +  -71.660m : 
+ (V(1,2) <    4.000 ) ?   -4.200m * V(1,2) +  -72.830m : 
+ (V(1,2) <    4.100 ) ?   -4.000m * V(1,2) +  -73.630m : 
+ (V(1,2) <    4.200 ) ?   -3.800m * V(1,2) +  -74.450m : 
+ (V(1,2) <    4.300 ) ?   -3.600m * V(1,2) +  -75.290m : 
+ (V(1,2) <    4.400 ) ?   -3.500m * V(1,2) +  -75.720m : 
+ (V(1,2) <    4.500 ) ?   -3.500m * V(1,2) +  -75.720m : 
+ (V(1,2) <    4.600 ) ?   -3.300m * V(1,2) +  -76.620m : 
+ (V(1,2) <    4.700 ) ?   -3.200m * V(1,2) +  -77.080m : 
+ (V(1,2) <    4.800 ) ?   -3.200m * V(1,2) +  -77.080m : 
+ (V(1,2) <    4.900 ) ?   -3.200m * V(1,2) +  -77.080m : 
+ (V(1,2) <    5.000 ) ?   -3.000m * V(1,2) +  -78.060m : 
+ (V(1,2) <    5.100 ) ?   -3.000m * V(1,2) +  -78.060m : 
+ (V(1,2) <    5.200 ) ?   -3.000m * V(1,2) +  -78.060m : 
+ (V(1,2) <    5.300 ) ?   -3.000m * V(1,2) +  -78.060m : 
+ (V(1,2) <    5.400 ) ?   -2.900m * V(1,2) +  -78.590m : 
+ (V(1,2) <    5.500 ) ?   -2.900m * V(1,2) +  -78.590m : 
+ (V(1,2) <    5.600 ) ?   -6.200m * V(1,2) +  -60.440m : 
+ (V(1,2) <    5.700 ) ?  -47.600m * V(1,2) +  171.400m : 